A71EV2AZ-x0229_A_301_1_A71EV2AZ-x0503+A+245+1__LIG
     RDKit          3D

 15 16  0  0  0  0  0  0  0  0999 V2000
  -27.6730   -4.6710   -7.6620 C   0  0  0  0  0  0  0  0  0  0  0  0
  -27.5600   -3.3530   -8.1830 O   0  0  0  0  0  0  0  0  0  0  0  0
  -28.1820   -3.0700   -9.3770 C   0  0  0  0  0  0  0  0  0  0  0  0
  -27.5750   -2.0410  -10.1230 C   0  0  0  0  0  0  0  0  0  0  0  0
  -28.0790   -1.6480  -11.3360 C   0  0  0  0  0  0  0  0  0  0  0  0
  -29.2120   -2.3030  -11.8010 C   0  0  0  0  0  0  0  0  0  0  0  0
  -29.9190   -2.1250  -12.9580 N   0  0  0  0  0  0  0  0  0  0  0  0
  -30.9670   -3.0050  -12.9800 C   0  0  0  0  0  0  0  0  0  0  0  0
  -30.9530   -3.7840  -11.8600 C   0  0  0  0  0  0  0  0  0  0  0  0
  -31.9690   -4.8170  -11.4720 C   0  0  0  0  0  0  0  0  0  0  0  0
  -31.6350   -6.2110  -11.7760 N   0  0  0  0  0  0  0  0  0  0  0  0
  -31.1340   -6.3510  -13.1350 C   0  0  0  0  0  0  0  0  0  0  0  0
  -32.8400   -7.0140  -11.6250 C   0  0  0  0  0  0  0  0  0  0  0  0
  -29.8350   -3.3350  -11.0770 C   0  0  0  0  0  0  0  0  0  0  0  0
  -29.3080   -3.7170   -9.8320 C   0  0  0  0  0  0  0  0  0  0  0  0
  1  2  1  0
  2  3  1  0
  3  4  2  0
  4  5  1  0
  5  6  2  0
  6  7  1  0
  7  8  1  0
  8  9  2  0
  9 10  1  0
 10 11  1  0
 11 12  1  0
 11 13  1  0
  9 14  1  0
 14 15  2  0
  3 15  1  0
  6 14  1  0
M  END
$$$$
