A71EV2AZ-x0229_A_301_1_A71EV2AZ-x0503+A+245+1__LIG
     RDKit          3D

 15 16  0  0  0  0  0  0  0  0999 V2000
   18.7510   -0.4380   23.8470 C   0  0  0  0  0  0  0  0  0  0  0  0
   18.0860    0.7480   23.4290 O   0  0  0  0  0  0  0  0  0  0  0  0
   17.8840    1.7430   24.3590 C   0  0  0  0  0  0  0  0  0  0  0  0
   16.7610    2.5550   24.1100 C   0  0  0  0  0  0  0  0  0  0  0  0
   16.4280    3.5870   24.9500 C   0  0  0  0  0  0  0  0  0  0  0  0
   17.2420    3.8000   26.0550 C   0  0  0  0  0  0  0  0  0  0  0  0
   17.1520    4.7380   27.0470 N   0  0  0  0  0  0  0  0  0  0  0  0
   18.1860    4.5580   27.9250 C   0  0  0  0  0  0  0  0  0  0  0  0
   18.9510    3.4960   27.5430 C   0  0  0  0  0  0  0  0  0  0  0  0
   20.2140    3.0180   28.1960 C   0  0  0  0  0  0  0  0  0  0  0  0
   20.0870    1.8870   29.1190 N   0  0  0  0  0  0  0  0  0  0  0  0
   18.9770    2.0790   30.0410 C   0  0  0  0  0  0  0  0  0  0  0  0
   21.3250    1.7740   29.8790 C   0  0  0  0  0  0  0  0  0  0  0  0
   18.3670    3.0010   26.3270 C   0  0  0  0  0  0  0  0  0  0  0  0
   18.6960    1.9550   25.4490 C   0  0  0  0  0  0  0  0  0  0  0  0
  1  2  1  0
  2  3  1  0
  3  4  2  0
  4  5  1  0
  5  6  2  0
  6  7  1  0
  7  8  1  0
  8  9  2  0
  9 10  1  0
 10 11  1  0
 11 12  1  0
 11 13  1  0
  9 14  1  0
 14 15  2  0
  3 15  1  0
  6 14  1  0
M  END
$$$$
