A71EV2AZ-x0446_A_245_1_A71EV2AZ-x0239+A+245+1__LIG
     RDKit          3D

 15 16  0  0  0  0  0  0  0  0999 V2000
   -9.8930   -2.8600    5.8140 C   0  0  0  0  0  0  0  0  0  0  0  0
   -9.1770   -2.6580    4.5170 C   0  0  0  0  0  0  0  0  0  0  0  0
   -7.8640   -2.2270    4.5560 N   0  0  0  0  0  0  0  0  0  0  0  0
   -7.4140   -1.9610    3.3670 C   0  0  0  0  0  0  0  0  0  0  0  0
   -8.5320   -2.2210    2.1080 S   0  0  0  0  0  0  0  0  0  0  0  0
   -9.6820   -2.8480    3.2530 C   0  0  0  0  0  0  0  0  0  0  0  0
  -10.9960   -3.4720    2.8440 C   0  0  0  0  0  0  0  0  0  0  0  0
  -11.9670   -3.4690    3.5970 O   0  0  0  0  0  0  0  0  0  0  0  0
  -11.0410   -4.0130    1.6360 N   0  0  0  0  0  0  0  0  0  0  0  0
  -12.2770   -4.5660    1.1010 C   0  0  0  0  0  0  0  0  0  0  0  0
  -12.7010   -3.8920   -0.1850 C   0  0  0  0  0  0  0  0  0  0  0  0
  -13.0410   -2.4180    0.0030 C   0  0  0  0  0  0  0  0  0  0  0  0
  -14.4380   -2.2300   -0.5620 C   0  0  0  0  0  0  0  0  0  0  0  0
  -15.0500   -3.5750   -0.7190 C   0  0  0  0  0  0  0  0  0  0  0  0
  -13.9080   -4.5630   -0.8180 C   0  0  0  0  0  0  0  0  0  0  0  0
  1  2  1  0
  2  3  1  0
  3  4  2  0
  4  5  1  0
  5  6  1  0
  6  7  1  0
  7  8  2  0
  7  9  1  0
  9 10  1  0
 10 11  1  0
 11 12  1  0
 12 13  1  0
 13 14  1  0
 14 15  1  0
  2  6  2  0
 11 15  1  0
M  END
$$$$
