A71EV2AZ-x0239_A_245_1_A71EV2AZ-x0239+A+245+1__LIG
     RDKit          3D

 13 13  0  0  0  0  0  0  0  0999 V2000
    4.9820  -10.9420   10.7360 C   0  0  0  0  0  0  0  0  0  0  0  0
    6.0990   -9.9240   10.9950 C   0  0  1  0  0  0  0  0  0  0  0  0
    7.4730  -10.4660   10.5750 C   0  0  0  0  0  0  0  0  0  0  0  0
    8.6480   -9.8820   11.3260 C   0  0  0  0  0  0  0  0  0  0  0  0
    8.5510   -8.7080   12.0640 C   0  0  0  0  0  0  0  0  0  0  0  0
    9.6410   -8.1840   12.7370 C   0  0  0  0  0  0  0  0  0  0  0  0
   10.8440   -8.8420   12.6640 C   0  0  0  0  0  0  0  0  0  0  0  0
   12.3490   -8.1330   13.5720 Br  0  0  0  0  0  0  0  0  0  0  0  0
   10.9840   -9.9980   11.9410 C   0  0  0  0  0  0  0  0  0  0  0  0
    9.8840  -10.5090   11.2760 C   0  0  0  0  0  0  0  0  0  0  0  0
    5.7990   -8.6190   10.2620 C   0  0  0  0  0  0  0  0  0  0  0  0
    5.9520   -7.5310   10.8110 O   0  0  0  0  0  0  0  0  0  0  0  0
    5.3990   -8.7240    9.0050 N   0  0  0  0  0  0  0  0  0  0  0  0
  2  1  1  6
  2  3  1  0
  3  4  1  0
  4  5  2  0
  5  6  1  0
  6  7  2  0
  7  8  1  0
  7  9  1  0
  9 10  2  0
  2 11  1  0
 11 12  2  0
 11 13  1  0
  4 10  1  0
M  END
$$$$
