A71EV2AZ-x0423_A_301_1_A71EV2AZ-x0423+A+301+1__LIG
     RDKit          3D

 15 16  0  0  0  0  0  0  0  0999 V2000
   -1.1930    0.4530   13.9360 O   0  0  0  0  0  0  0  0  0  0  0  0
   -1.2810    0.7930   12.7640 C   0  0  0  0  0  0  0  0  0  0  0  0
   -1.0200    2.0460   12.3210 N   0  0  0  0  0  0  0  0  0  0  0  0
   -1.3960    3.2610   12.9260 C   0  0  0  0  0  0  0  0  0  0  0  0
   -1.8110    4.3880   12.2160 C   0  0  0  0  0  0  0  0  0  0  0  0
   -2.1450    5.5140   12.9240 C   0  0  0  0  0  0  0  0  0  0  0  0
   -2.0940    5.4940   14.2970 C   0  0  0  0  0  0  0  0  0  0  0  0
   -1.6770    4.3380   14.9220 C   0  0  0  0  0  0  0  0  0  0  0  0
   -1.3350    3.2210   14.2620 N   0  0  0  0  0  0  0  0  0  0  0  0
   -1.6940   -0.2490   11.7650 C   0  0  1  0  0  0  0  0  0  0  0  0
   -0.5390   -0.6940   10.8950 C   0  0  0  0  0  0  0  0  0  0  0  0
   -0.9330   -1.7490   10.0240 O   0  0  0  0  0  0  0  0  0  0  0  0
   -1.4570   -2.8620   10.7540 C   0  0  0  0  0  0  0  0  0  0  0  0
   -2.6110   -2.4620   11.6250 C   0  0  0  0  0  0  0  0  0  0  0  0
   -2.2710   -1.3560   12.4720 O   0  0  0  0  0  0  0  0  0  0  0  0
  1  2  2  0
  2  3  1  0
  3  4  1  0
  4  5  2  0
  5  6  1  0
  6  7  2  0
  7  8  1  0
  8  9  2  0
 10  2  1  1
 10 11  1  0
 11 12  1  0
 12 13  1  0
 13 14  1  0
 14 15  1  0
  4  9  1  0
 10 15  1  0
M  END
$$$$
